&HEAD CHID='ifc_conversion', TITLE='Generated by IFCtoFDS' /
! Conversion strategy: hybrid
! VOXEL OBST = stair-stepped OBST approximation; GEOM = detailed triangles; HYBRID = exact boxes where safe, triangles otherwise.
! IFC window and door fill solids are excluded from obstruction export.
! Host IFC opening volumes carve cells wherever voxel OBST geometry is emitted.
! Opening depth margin: 0.05 m at each end of the penetration axis.
! Hole voxel policy: smaller.
! FDS mesh target cell size: 0.1 m.
! Voxel size: 0.1 m. Adjacent occupied cells are merged into equivalent OBST cuboids.
&TIME T_END=0.0 /
&MESH ID='Domain', IJK=140,121,76, XB=-1,13,-1,11,-0.7,6.817691 /
&SURF ID='IFC_SOLID', RGB=185,185,185 /
&SURF ID='IFC_DOOR', RGB=150,88,46 /
&SURF ID='IFC_WINDOW', RGB=92,178,214 /
! IFC_SOURCE, OUTPUT='GEOM', ITEM_ID='Wendeltreppe', IFC_TYPE='IFCSTAIR', GLOBAL_ID='38a9vdh9bF5Qg28GWyHhlr', STEP_ID='#14502', NAME='Wendeltreppe'
&GEOM ID='Wendeltreppe', SURF_ID='IFC_SOLID',
      VERTS=6.730495,2.664369,0.295141,6.726596,2.664235,0.290806,6.818301,2.535975,0.408475,
            6.734047,2.665985,0.296663,6.73671,2.668836,0.295141,6.738078,2.67249,0.290806,
            6.737945,2.67639,0.284319,6.736329,2.679941,0.276667,6.733477,2.682604,0.269015,
            6.729823,2.683973,0.262528,6.725924,2.683839,0.258193,6.722372,2.682223,0.256671,
            6.719709,2.679371,0.258193,6.71834,2.675718,0.262528,6.718474,2.671818,0.269015,
            6.72009,2.668267,0.276667,6.722942,2.665604,0.284319,6.817963,2.533073,0.405884,
            6.819878,2.539107,0.410207,6.822454,2.541991,0.410815,6.825635,2.544188,0.410207,
            6.828939,2.545363,0.408475,6.831861,2.545338,0.405884,6.833957,2.544117,0.402828,
            6.834909,2.541885,0.399772,6.83457,2.538982,0.397181,6.832993,2.53585,0.395449,
            6.830418,2.532967,0.394841,6.827236,2.53077,0.395449,6.823933,2.529594,0.397181,
            6.82101,2.529619,0.399772,6.818914,2.530841,0.402828,6.867847,2.486451,0.456394,
            6.867895,2.489364,0.45899,6.869013,2.484331,0.453333,6.869148,2.492627,0.460724,
            6.871416,2.495743,0.461333,6.874353,2.498238,0.460724,6.877514,2.499731,0.45899,
            6.880415,2.499996,0.456394,6.882616,2.498992,0.453333,6.883782,2.496872,0.450272,
            6.883734,2.493959,0.447676,6.882481,2.490696,0.445942,6.880213,2.48758,0.445333,
            6.877275,2.485086,0.445942,6.874115,2.483592,0.447676,6.871214,2.483327,0.450272,
            6.943729,2.41503,0.529059,6.942353,2.41703,0.532114,6.942109,2.419943,0.534704,
            6.946027,2.414247,0.526004,6.943034,2.423325,0.536435,6.944987,2.426662,0.537043,
            6.94767,2.429445,0.536435,6.950676,2.431252,0.534704,6.953546,2.431806,0.532114,
            6.955844,2.431023,0.529059,6.957219,2.429023,0.526004,6.957464,2.42611,0.523414,
            6.956539,2.422727,0.521683,6.954586,2.419391,0.521075,6.951903,2.416607,0.521683,
            6.948897,2.414801,0.523414,7.061702,2.343808,0.626938,7.059346,2.344356,0.63,
            7.057784,2.346203,0.633062,7.057254,2.349067,0.635657,7.064493,2.344643,0.624343,
            7.057836,2.352513,0.637392,7.059442,2.356017,0.638001,7.061827,2.359044,0.637392,
            7.064628,2.361134,0.635657,7.067419,2.361969,0.633062,7.069775,2.361422,0.63,
            7.071337,2.359575,0.626938,7.071868,2.35671,0.624343,7.071286,2.353264,0.622608,
            7.06968,2.34976,0.621999,7.067295,2.346733,0.622608,7.094123,2.327047,0.649647,
            7.091421,2.325935,0.652239,7.089016,2.326246,0.655296,7.087273,2.327932,0.658353,
            7.086459,2.330738,0.660945,7.09671,2.329414,0.647916,7.086696,2.334236,0.662676,
            7.087949,2.337894,0.663284,7.090027,2.341154,0.662676,7.092614,2.343521,0.660945,
            7.095316,2.344633,0.658353,7.097721,2.344322,0.655296,7.099464,2.342636,0.652239,
            7.100279,2.33983,0.649647,7.100041,2.336332,0.647916,7.098788,2.332674,0.647308,
            7.255929,2.272641,0.773991,7.253862,2.269808,0.775722,7.251434,2.268183,0.778314,
            7.249015,2.268011,0.781371,7.246973,2.269319,0.784428,7.245618,2.271908,0.78702,
            7.25732,2.276248,0.773383,7.245158,2.275383,0.788751,7.245661,2.279217,0.789359,
            7.247052,2.282824,0.788751,7.249119,2.285656,0.78702,7.251547,2.287282,0.784428,
            7.253966,2.287454,0.781371,7.256008,2.286146,0.778314,7.257363,2.283557,0.775722,
            7.257823,2.280081,0.773991,7.290807,2.271807,0.798666,7.289785,2.268091,0.799275,
            7.288016,2.265077,0.80101,7.285768,2.263224,0.803605,7.283384,2.262813,0.806667,
            7.281228,2.263908,0.809729,7.279626,2.266341,0.812324,7.290926,2.275659,0.799275,
            7.278824,2.269743,0.814059,7.278942,2.273595,0.814668,7.279964,2.277311,0.814059,
            7.281734,2.280326,0.812324,7.283981,2.282179,0.809729,7.286365,2.28259,0.806667,
            7.288522,2.281495,0.803605,7.290123,2.279061,0.80101,7.423628,2.25621,0.900232,
            7.423895,2.252353,0.899624,7.423246,2.248542,0.900232,7.42178,2.245356,0.901963,
            7.41972,2.243282,0.904553,7.417381,2.242634,0.907608,7.415118,2.243511,0.910663,
            7.413275,2.245781,0.913253,7.422487,2.259526,0.901963,7.412133,2.249096,0.914984,
            7.411867,2.252953,0.915592,7.412516,2.256765,0.914984,7.413982,2.25995,0.913253,
            7.416042,2.262025,0.910663,7.418381,2.262673,0.907608,7.420644,2.261795,0.904553,
            7.522548,2.264957,0.977676,7.524009,2.261782,0.975942,7.524656,2.257982,0.975333,
            7.524391,2.254137,0.975942,7.523253,2.250832,0.977676,7.521417,2.24857,0.980272,
            7.519162,2.247696,0.983333,7.51683,2.248341,0.986394,7.514778,2.250409,0.98899,
            7.520496,2.267025,0.980272,7.513317,2.253585,0.990724,7.51267,2.257384,0.991333,
            7.512936,2.261229,0.990724,7.514073,2.264534,0.98899,7.515909,2.266796,0.986394,
            7.518165,2.267671,0.983333,7.586837,2.270549,1.030782,7.589091,2.268689,1.028191,
            7.590866,2.265665,1.026459,7.591892,2.261938,1.025851,7.592011,2.258073,1.026459,
            7.591206,2.254661,1.028191,7.589599,2.252219,1.030782,7.587436,2.251121,1.033838,
            7.585045,2.251533,1.036894,7.58279,2.253392,1.039485,7.584446,2.270961,1.033838,
            7.581015,2.256416,1.041217,7.57999,2.260144,1.041825,7.579871,2.264008,1.041217,
            7.580676,2.267421,1.039485,7.582282,2.269862,1.036894,7.745577,2.311989,1.16,
            7.748002,2.312059,1.156944,7.750581,2.310683,1.154353,7.75292,2.308071,1.152621,
            7.754663,2.30462,1.152013,7.755546,2.300856,1.152621,7.755433,2.297351,1.154353,
            7.754342,2.29464,1.156944,7.752439,2.293135,1.16,7.750014,2.293065,1.163056,
            7.747436,2.294441,1.165647,7.743674,2.310483,1.163056,7.745097,2.297053,1.167379,
            7.743353,2.300504,1.167987,7.742471,2.304268,1.167379,7.742583,2.307772,1.165647,
            7.893816,2.382279,1.289218,7.895382,2.384132,1.286162,7.897746,2.384681,1.283106,
            7.900546,2.383843,1.280515,7.903356,2.381747,1.278783,7.905748,2.37871,1.278175,
            7.907359,2.375195,1.278783,7.907943,2.371738,1.280515,7.907411,2.368864,1.283106,
            7.905844,2.367012,1.286162,7.903481,2.366462,1.289218,7.900681,2.3673,1.291809,
            7.893284,2.379406,1.291809,7.897871,2.369397,1.293541,7.895478,2.372434,1.294149,
            7.893867,2.375948,1.293541,7.946658,2.41932,1.342324,7.946901,2.422223,1.339728,
            7.948272,2.424216,1.336667,7.950562,2.424996,1.333606,7.953422,2.424443,1.33101,
            7.956418,2.422643,1.329276,7.959093,2.419868,1.328667,7.96104,2.416542,1.329276,
            7.961962,2.41317,1.33101,7.961719,2.410267,1.333606,7.960348,2.408274,1.336667,
            7.958058,2.407494,1.339728,7.955197,2.408046,1.342324,7.94758,2.415948,1.344058,
            7.952201,2.409847,1.344058,7.949527,2.412622,1.344667,8.028058,2.476204,1.419768,
            8.026801,2.479477,1.418037,8.026754,2.4824,1.415447,8.027924,2.484527,1.412392,
            8.030132,2.485535,1.409337,8.033043,2.485269,1.406747,8.036214,2.483771,1.405016,
            8.039161,2.481269,1.404408,8.041436,2.478143,1.405016,8.042693,2.474869,1.406747,
            8.04274,2.471946,1.409337,8.041571,2.469819,1.412392,8.039362,2.468812,1.415447,
            8.036451,2.469077,1.418037,8.030333,2.473078,1.420376,8.03328,2.470575,1.419768,
            8.11978,2.573527,1.521334,8.117213,2.576401,1.520725,8.115641,2.579523,1.51899,
            8.115303,2.582417,1.516395,8.116252,2.584642,1.513333,8.118342,2.585859,1.510271,
            8.121255,2.585884,1.507676,8.124548,2.584713,1.505941,8.127719,2.582523,1.505332,
            8.130286,2.579648,1.505941,8.131858,2.576527,1.507676,8.132196,2.573633,1.510271,
            8.131247,2.571408,1.513333,8.129158,2.57019,1.516395,8.126244,2.570165,1.51899,
            8.122951,2.571337,1.520725,8.145962,2.596585,1.546009,8.142577,2.598455,1.546618,
            8.139727,2.601067,1.546009,8.137846,2.604026,1.544278,8.137219,2.60688,1.541686,
            8.137943,2.609195,1.538629,8.139907,2.610618,1.535572,8.142812,2.610933,1.53298,
            8.146216,2.610092,1.531249,8.1496,2.608223,1.53064,8.15245,2.60561,1.531249,
            8.154331,2.602651,1.53298,8.154958,2.599797,1.535572,8.154234,2.597483,1.538629,
            8.15227,2.596059,1.541686,8.149365,2.595744,1.544278,8.23494,2.74227,1.670353,
            8.231437,2.74242,1.672084,8.22775,2.743582,1.672693,8.224439,2.745578,1.672084,
            8.222008,2.748105,1.670353,8.220829,2.750778,1.667761,8.22108,2.753191,1.664704,
            8.222722,2.754975,1.661647,8.225507,2.755859,1.659055,8.22901,2.755709,1.657324,
            8.232698,2.754547,1.656715,8.236009,2.752551,1.657324,8.238439,2.750024,1.659055,
            8.239619,2.747351,1.661647,8.239368,2.744938,1.664704,8.237725,2.743154,1.667761,
            8.249003,2.775949,1.693062,8.246329,2.774794,1.695657,8.242839,2.774595,1.697392,
            8.239066,2.775381,1.698001,8.235584,2.777032,1.697392,8.232923,2.779298,1.695657,
            8.231488,2.781834,1.693062,8.231498,2.784253,1.69,8.23295,2.786186,1.686938,
            8.235625,2.787341,1.684343,8.239115,2.78754,1.682608,8.242888,2.786754,1.681999,
            8.24637,2.785103,1.682608,8.249031,2.782837,1.684343,8.250466,2.780301,1.686938,
            8.250456,2.777883,1.69,8.293595,2.90634,1.790941,8.292338,2.904263,1.793996,
            8.289783,2.902842,1.796586,8.28632,2.902294,1.798317,8.282475,2.902701,1.798925,
            8.278834,2.904003,1.798317,8.275952,2.905999,1.796586,8.274266,2.908388,1.793996,
            8.274035,2.910804,1.790941,8.275292,2.912881,1.787886,8.277847,2.914301,1.785296,
            8.28131,2.91485,1.783565,8.285155,2.914442,1.782957,8.288796,2.913141,1.783565,
            8.291678,2.911144,1.785296,8.293364,2.908756,1.787886,8.305815,3.009827,1.863606,
            8.306285,3.007453,1.866667,8.305244,3.00527,1.869728,8.302851,3.003607,1.872324,
            8.299471,3.00272,1.874058,8.295617,3.002743,1.874667,8.291876,3.003672,1.874058,
            8.288819,3.005366,1.872324,8.28691,3.007567,1.869728,8.28644,3.00994,1.866667,
            8.287481,3.012124,1.863606,8.289874,3.013786,1.86101,8.293255,3.014673,1.859276,
            8.297109,3.014651,1.858667,8.300849,3.013722,1.859276,8.303907,3.012028,1.86101,
            8.311936,3.079613,1.911525,8.314062,3.077607,1.914116,8.314768,3.075285,1.917172,
            8.313947,3.073002,1.920228,8.311724,3.071105,1.922819,8.308438,3.069882,1.924551,
            8.304589,3.069519,1.925159,8.300762,3.070073,1.924551,8.297541,3.071458,1.922819,
            8.295416,3.073464,1.920228,8.29471,3.075786,1.917172,8.295531,3.078069,1.914116,
            8.297753,3.079966,1.911525,8.30104,3.081189,1.909793,8.304889,3.081551,1.909185,
            8.308715,3.080998,1.909793,8.29498,3.249477,2.035954,8.298412,3.248758,2.037686,
            8.300892,3.247212,2.040277,8.302044,3.245077,2.043333,8.301692,3.242677,2.046389,
            8.299889,3.240376,2.04898,8.296911,3.238526,2.050712,8.29321,3.237409,2.05132,
            8.289349,3.237193,2.050712,8.285918,3.237913,2.04898,8.283437,3.239458,2.046389,
            8.282285,3.241593,2.043333,8.282637,3.243994,2.040277,8.28444,3.246294,2.037686,
            8.287418,3.248144,2.035954,8.29112,3.249262,2.035346,8.244392,3.410917,2.161508,
            8.248133,3.411893,2.162116,8.251639,3.411868,2.163848,8.254376,3.410845,2.166439,
            8.255929,3.40898,2.169495,8.256059,3.406557,2.172551,8.254748,3.403945,2.175142,
            8.252195,3.401542,2.176874,8.248789,3.399713,2.177482,8.245048,3.398737,2.176874,
            8.241542,3.398762,2.175142,8.238804,3.399785,2.172551,8.237252,3.40165,2.169495,
            8.237121,3.404073,2.166439,8.238432,3.406685,2.163848,8.240985,3.409088,2.162116,
            8.209925,3.468446,2.212609,8.213122,3.470598,2.212,8.216736,3.471938,2.212609,
            8.220216,3.47226,2.214343,8.223033,3.471517,2.216939,8.224758,3.469821,2.22,
            8.225128,3.46743,2.223061,8.224087,3.464709,2.225657,8.221794,3.462071,2.227391,
            8.218597,3.459919,2.228,8.214983,3.458579,2.227391,8.211503,3.458257,2.225657,
            8.208686,3.459,2.223061,8.206961,3.460696,2.22,8.20659,3.463087,2.216939,
            8.207631,3.465808,2.214343,8.161555,3.554782,2.290081,8.163581,3.557644,2.28835,
            8.166557,3.560112,2.287742,8.170031,3.56181,2.28835,8.173473,3.562479,2.290081,
            8.17636,3.562018,2.292671,8.178251,3.560497,2.295726,8.17886,3.558147,2.298781,
            8.178093,3.555326,2.301371,8.176067,3.552464,2.303102,8.173091,3.549996,2.30371,
            8.169617,3.548298,2.303102,8.166175,3.547629,2.301371,8.163289,3.54809,2.298781,
            8.161397,3.549611,2.295726,8.160788,3.551961,2.292671,8.077305,3.656252,2.393605,
            8.077786,3.659125,2.39101,8.079512,3.662164,2.389275,8.082219,3.664907,2.388666,
            8.085495,3.666936,2.389275,8.088843,3.667942,2.39101,8.091751,3.667772,2.393605,
            8.093778,3.666452,2.396667,8.094614,3.664182,2.399729,8.094132,3.661309,2.402324,
            8.092407,3.65827,2.404059,8.0897,3.655527,2.404668,8.086423,3.653498,2.404059,
            8.083076,3.652492,2.402324,8.080167,3.652662,2.399729,8.078141,3.653982,2.396667,
            8.057728,3.679608,2.421962,8.056667,3.681789,2.418905,8.056861,3.684704,2.416313,
            8.058281,3.68791,2.414582,8.060709,3.690918,2.413973,8.063777,3.693271,2.414582,
            8.067018,3.69461,2.416313,8.069937,3.694732,2.418905,8.072091,3.693617,2.421962,
            8.073152,3.691436,2.425019,8.072957,3.688521,2.427611,8.071538,3.685315,2.429342,
            8.06911,3.682306,2.429951,8.066042,3.679953,2.429342,8.062801,3.678614,2.427611,
            8.059882,3.678493,2.425019,7.932688,3.78582,2.551095,7.930356,3.786486,2.548038,
            7.928884,3.788413,2.544981,7.928497,3.791309,2.542389,7.929253,3.794733,2.540658,
            7.931037,3.798163,2.540049,7.933578,3.801077,2.540658,7.936489,3.803031,2.542389,
            7.939326,3.803729,2.544981,7.941658,3.803063,2.548038,7.94313,3.801135,2.551095,
            7.943517,3.798239,2.553687,7.942761,3.794816,2.555418,7.940977,3.791386,2.556027,
            7.938436,3.788472,2.555418,7.935525,3.786517,2.553687,7.906701,3.802682,2.57899,
            7.903955,3.801709,2.576395,7.901575,3.802139,2.573333,7.899923,3.803905,2.570271,
            7.89925,3.80674,2.567676,7.89966,3.810211,2.565941,7.901089,3.81379,2.565332,
            7.90332,3.816932,2.565941,7.906014,3.81916,2.567676,7.90876,3.820132,2.570271,
            7.91114,3.819703,2.573333,7.912792,3.817937,2.576395,7.913465,3.815102,2.57899,
            7.913055,3.811631,2.580725,7.911626,3.808052,2.581334,7.909395,3.804909,2.580725,
            7.791864,3.869552,2.68165,7.789397,3.86706,2.679919,7.786752,3.865815,2.677329,
            7.784332,3.866006,2.674274,7.782506,3.867605,2.671219,7.78155,3.870367,2.668629,
            7.781612,3.873873,2.666898,7.78268,3.877589,2.66629,7.784594,3.880949,2.666898,
            7.787061,3.883441,2.668629,7.789706,3.884686,2.671219,7.792126,3.884494,2.674274,
            7.793952,3.882895,2.677329,7.794908,3.880133,2.679919,7.794846,3.876627,2.68165,
            7.793778,3.872911,2.682258,7.694991,3.904011,2.76,7.69362,3.900429,2.759239,
            7.691973,3.897542,2.757071,7.6903,3.895789,2.753827,7.688856,3.895438,2.75,
            7.687861,3.896541,2.746173,7.687466,3.898932,2.742929,7.687732,3.902245,2.740761,
            7.688617,3.905976,2.74,7.689988,3.909558,2.740761,7.691635,3.912445,2.742929,
            7.693308,3.914198,2.746173,7.694751,3.914549,2.75,7.695747,3.913446,2.753827,
            7.696141,3.911055,2.757071,7.695876,3.907742,2.759239,7.628197,3.928618,2.759239,
            7.627435,3.924848,2.76,7.626673,3.921078,2.759239,7.626027,3.917883,2.757071,
            7.625595,3.915747,2.753827,7.625444,3.914997,2.75,7.625595,3.915747,2.746173,
            7.626027,3.917883,2.742929,7.626673,3.921078,2.740761,7.627435,3.924848,2.74,
            7.628197,3.928618,2.740761,7.628843,3.931814,2.742929,7.629275,3.933949,2.746173,
            7.629426,3.934699,2.75,7.629275,3.933949,2.753827,7.628843,3.931814,2.757071,
            7.469576,3.944491,2.759239,7.469952,3.940607,2.76,7.468814,3.936875,2.759239,
            7.466334,3.933863,2.757071,7.46289,3.932029,2.753827,7.459006,3.931652,2.75,
            7.455274,3.932791,2.746173,7.452262,3.935271,2.742929,7.450428,3.938715,2.740761,
            7.450052,3.942598,2.74,7.45119,3.94633,2.740761,7.45367,3.949343,2.742929,
            7.457114,3.951177,2.746173,7.460998,3.951553,2.75,7.46473,3.950414,2.753827,
            7.467742,3.947934,2.757071,7.469576,3.944491,3.540761,7.469952,3.940607,3.54,
            7.468814,3.936875,3.540761,7.466334,3.933863,3.542929,7.46289,3.932029,3.546173,
            7.459006,3.931652,3.55,7.455274,3.932791,3.553827,7.452262,3.935271,3.557071,
            7.450428,3.938715,3.559239,7.450052,3.942598,3.56,7.45119,3.94633,3.559239,
            7.45367,3.949343,3.557071,7.457114,3.951177,3.553827,7.460998,3.951553,3.55,
            7.46473,3.950414,3.546173,7.467742,3.947934,3.542929,7.628197,3.928618,3.540761,
            7.627435,3.924848,3.54,7.626673,3.921078,3.540761,7.626027,3.917883,3.542929,
            7.625595,3.915747,3.546173,7.625444,3.914997,3.55,7.625595,3.915747,3.553827,
            7.626027,3.917883,3.557071,7.626673,3.921078,3.559239,7.627435,3.924848,3.56,
            7.628197,3.928618,3.559239,7.628843,3.931814,3.557071,7.629275,3.933949,3.553827,
            7.629426,3.934699,3.55,7.629275,3.933949,3.546173,7.628843,3.931814,3.542929,
            7.689988,3.909558,3.540761,7.688617,3.905976,3.54,7.687732,3.902245,3.540761,
            7.687466,3.898932,3.542929,7.687861,3.896541,3.546173,7.688856,3.895438,3.55,
            7.6903,3.895789,3.553827,7.691973,3.897542,3.557071,7.69362,3.900429,3.559239,
            7.694991,3.904011,3.56,7.695876,3.907742,3.559239,7.696141,3.911055,3.557071,
            7.695747,3.913446,3.553827,7.694751,3.914549,3.55,7.693308,3.914198,3.546173,
            7.691635,3.912445,3.542929,7.784594,3.880949,3.466898,7.78268,3.877589,3.46629,
            7.781612,3.873873,3.466898,7.78155,3.870367,3.468629,7.782506,3.867605,3.471219,
            7.784332,3.866006,3.474274,7.786752,3.865815,3.477329,7.789397,3.86706,3.479919,
            7.791864,3.869552,3.48165,7.793778,3.872911,3.482258,7.794846,3.876627,3.48165,
            7.794908,3.880133,3.479919,7.793952,3.882895,3.477329,7.792126,3.884494,3.474274,
            7.789706,3.884686,3.471219,7.787061,3.883441,3.468629,7.906014,3.81916,3.367676,
            7.90332,3.816932,3.365941,7.901089,3.81379,3.365332,7.89966,3.810211,3.365941,
            7.89925,3.80674,3.367676,7.899923,3.803905,3.370271,7.901575,3.802139,3.373333,
            7.903955,3.801709,3.376395,7.906701,3.802682,3.37899,7.909395,3.804909,3.380725,
            7.911626,3.808052,3.381334,7.913055,3.811631,3.380725,7.913465,3.815102,3.37899,
            7.912792,3.817937,3.376395,7.91114,3.819703,3.373333,7.90876,3.820132,3.370271,
            7.939326,3.803729,3.344981,7.936489,3.803031,3.342389,7.933578,3.801077,3.340658,
            7.931037,3.798163,3.340049,7.929253,3.794733,3.340658,7.928497,3.791309,3.342389,
            7.928884,3.788413,3.344981,7.930356,3.786486,3.348038,7.932688,3.78582,3.351095,
            7.935525,3.786517,3.353687,7.938436,3.788472,3.355418,7.940977,3.791386,3.356027,
            7.942761,3.794816,3.355418,7.943517,3.798239,3.353687,7.94313,3.801135,3.351095,
            7.941658,3.803063,3.348038,8.072091,3.693617,3.221962,8.069937,3.694732,3.218905,
            8.067018,3.69461,3.216313,8.063777,3.693271,3.214582,8.060709,3.690918,3.213973,
            8.058281,3.68791,3.214582,8.056861,3.684704,3.216313,8.056667,3.681789,3.218905,
            8.057728,3.679608,3.221962,8.059882,3.678493,3.225019,8.062801,3.678614,3.227611,
            8.066042,3.679953,3.229342,8.06911,3.682306,3.229951,8.071538,3.685315,3.229342,
            8.072957,3.688521,3.227611,8.073152,3.691436,3.225019,8.094614,3.664182,3.199729,
            8.093778,3.666452,3.196667,8.091751,3.667772,3.193605,8.088843,3.667942,3.19101,
            8.085495,3.666936,3.189275,8.082219,3.664907,3.188666,8.079512,3.662164,3.189275,
            8.077786,3.659125,3.19101,8.077305,3.656252,3.193605,8.078141,3.653982,3.196667,
            8.080167,3.652662,3.199729,8.083076,3.652492,3.202324,8.086423,3.653498,3.204059,
            8.0897,3.655527,3.204668,8.092407,3.65827,3.204059,8.094132,3.661309,3.202324,
            8.178093,3.555326,3.101371,8.17886,3.558147,3.098781,8.178251,3.560497,3.095726,
            8.17636,3.562018,3.092671,8.173473,3.562479,3.090081,8.170031,3.56181,3.08835,
            8.166557,3.560112,3.087742,8.163581,3.557644,3.08835,8.161555,3.554782,3.090081,
            8.160788,3.551961,3.092671,8.161397,3.549611,3.095726,8.163289,3.54809,3.098781,
            8.166175,3.547629,3.101371,8.169617,3.548298,3.103102,8.173091,3.549996,3.10371,
            8.176067,3.552464,3.103102,8.221794,3.462071,3.027391,8.224087,3.464709,3.025657,
            8.225128,3.46743,3.023061,8.224758,3.469821,3.02,8.223033,3.471517,3.016939,
            8.220216,3.47226,3.014343,8.216736,3.471938,3.012609,8.213122,3.470598,3.012,
            8.209925,3.468446,3.012609,8.207631,3.465808,3.014343,8.20659,3.463087,3.016939,
            8.206961,3.460696,3.02,8.208686,3.459,3.023061,8.211503,3.458257,3.025657,
            8.214983,3.458579,3.027391,8.218597,3.459919,3.028,8.248789,3.399713,2.977482,
            8.252195,3.401542,2.976874,8.254748,3.403945,2.975142,8.256059,3.406557,2.972551,
            8.255929,3.40898,2.969495,8.254376,3.410845,2.966439,8.251639,3.411868,2.963848,
            8.248133,3.411893,2.962116,8.244392,3.410917,2.961508,8.240985,3.409088,2.962116,
            8.238432,3.406685,2.963848,8.237121,3.404073,2.966439,8.237252,3.40165,2.969495,
            8.238804,3.399785,2.972551,8.241542,3.398762,2.975142,8.245048,3.398737,2.976874,
            8.289349,3.237193,2.850712,8.29321,3.237409,2.85132,8.296911,3.238526,2.850712,
            8.299889,3.240376,2.84898,8.301692,3.242677,2.846389,8.302044,3.245077,2.843333,
            8.300892,3.247212,2.840277,8.298412,3.248758,2.837686,8.29498,3.249477,2.835954,
            8.29112,3.249262,2.835346,8.287418,3.248144,2.835954,8.28444,3.246294,2.837686,
            8.282637,3.243994,2.840277,8.282285,3.241593,2.843333,8.283437,3.239458,2.846389,
            8.285918,3.237913,2.84898,8.297541,3.071458,2.722819,8.300762,3.070073,2.724551,
            8.304589,3.069519,2.725159,8.308438,3.069882,2.724551,8.311724,3.071105,2.722819,
            8.313947,3.073002,2.720228,8.314768,3.075285,2.717172,8.314062,3.077607,2.714116,
            8.311936,3.079613,2.711525,8.308715,3.080998,2.709793,8.304889,3.081551,2.709185,
            8.30104,3.081189,2.709793,8.297753,3.079966,2.711525,8.295531,3.078069,2.714116,
            8.29471,3.075786,2.717172,8.295416,3.073464,2.720228,8.28691,3.007567,2.669728,
            8.288819,3.005366,2.672324,8.291876,3.003672,2.674058,8.295617,3.002743,2.674667,
            8.299471,3.00272,2.674058,8.302851,3.003607,2.672324,8.305244,3.00527,2.669728,
            8.306285,3.007453,2.666667,8.305815,3.009827,2.663606,8.303907,3.012028,2.66101,
            8.300849,3.013722,2.659276,8.297109,3.014651,2.658667,8.293255,3.014673,2.659276,
            8.289874,3.013786,2.66101,8.287481,3.012124,2.663606,8.28644,3.00994,2.666667,
            8.274035,2.910804,2.590941,8.274266,2.908388,2.593996,8.275952,2.905999,2.596586,
            8.278834,2.904003,2.598317,8.282475,2.902701,2.598925,8.28632,2.902294,2.598317,
            8.289783,2.902842,2.596586,8.292338,2.904263,2.593996,8.293595,2.90634,2.590941,
            8.293364,2.908756,2.587886,8.291678,2.911144,2.585296,8.288796,2.913141,2.583565,
            8.285155,2.914442,2.582957,8.28131,2.91485,2.583565,8.277847,2.914301,2.585296,
            8.275292,2.912881,2.587886,8.23295,2.786186,2.486938,8.231498,2.784253,2.49,
            8.231488,2.781834,2.493062,8.232923,2.779298,2.495657,8.235584,2.777032,2.497392,
            8.239066,2.775381,2.498001,8.242839,2.774595,2.497392,8.246329,2.774794,2.495657,
            8.249003,2.775949,2.493062,8.250456,2.777883,2.49,8.250466,2.780301,2.486938,
            8.249031,2.782837,2.484343,8.24637,2.785103,2.482608,8.242888,2.786754,2.481999,
            8.239115,2.78754,2.482608,8.235625,2.787341,2.484343,8.225507,2.755859,2.459055,
            8.222722,2.754975,2.461647,8.22108,2.753191,2.464704,8.220829,2.750778,2.467761,
            8.222008,2.748105,2.470353,8.224439,2.745578,2.472084,8.22775,2.743582,2.472693,
            8.231437,2.74242,2.472084,8.23494,2.74227,2.470353,8.237725,2.743154,2.467761,
            8.239368,2.744938,2.464704,8.239619,2.747351,2.461647,8.238439,2.750024,2.459055,
            8.236009,2.752551,2.457324,8.232698,2.754547,2.456715,8.22901,2.755709,2.457324,
            8.146216,2.610092,2.331249,8.142812,2.610933,2.33298,8.139907,2.610618,2.335572,
            8.137943,2.609195,2.338629,8.137219,2.60688,2.341686,8.137846,2.604026,2.344278,
            8.139727,2.601067,2.346009,8.142577,2.598455,2.346618,8.145962,2.596585,2.346009,
            8.149365,2.595744,2.344278,8.15227,2.596059,2.341686,8.154234,2.597483,2.338629,
            8.154958,2.599797,2.335572,8.154331,2.602651,2.33298,8.15245,2.60561,2.331249,
            8.1496,2.608223,2.33064,8.127719,2.582523,2.305332,8.124548,2.584713,2.305941,
            8.121255,2.585884,2.307676,8.118342,2.585859,2.310271,8.116252,2.584642,2.313333,
            8.115303,2.582417,2.316395,8.115641,2.579523,2.31899,8.117213,2.576401,2.320725,
            8.11978,2.573527,2.321334,8.122951,2.571337,2.320725,8.126244,2.570165,2.31899,
            8.129158,2.57019,2.316395,8.131247,2.571408,2.313333,8.132196,2.573633,2.310271,
            8.131858,2.576527,2.307676,8.130286,2.579648,2.305941,8.041436,2.478143,2.205016,
            8.039161,2.481269,2.204408,8.036214,2.483771,2.205016,8.033043,2.485269,2.206747,
            8.030132,2.485535,2.209337,8.027924,2.484527,2.212392,8.026754,2.4824,2.215447,
            8.026801,2.479477,2.218037,8.028058,2.476204,2.219768,8.030333,2.473078,2.220376,
            8.03328,2.470575,2.219768,8.036451,2.469077,2.218037,8.039362,2.468812,2.215447,
            8.041571,2.469819,2.212392,8.04274,2.471946,2.209337,8.042693,2.474869,2.206747,
            7.961962,2.41317,2.13101,7.96104,2.416542,2.129276,7.959093,2.419868,2.128667,
            7.956418,2.422643,2.129276,7.953422,2.424443,2.13101,7.950562,2.424996,2.133606,
            7.948272,2.424216,2.136667,7.946901,2.422223,2.139728,7.946658,2.41932,2.142324,
            7.94758,2.415948,2.144058,7.949527,2.412622,2.144667,7.952201,2.409847,2.144058,
            7.955197,2.408046,2.142324,7.958058,2.407494,2.139728,7.960348,2.408274,2.136667,
            7.961719,2.410267,2.133606,7.907411,2.368864,2.083106,7.907943,2.371738,2.080515,
            7.907359,2.375195,2.078783,7.905748,2.37871,2.078175,7.903356,2.381747,2.078783,
            7.900546,2.383843,2.080515,7.897746,2.384681,2.083106,7.895382,2.384132,2.086162,
            7.893816,2.382279,2.089218,7.893284,2.379406,2.091809,7.893867,2.375948,2.093541,
            7.895478,2.372434,2.094149,7.897871,2.369397,2.093541,7.900681,2.3673,2.091809,
            7.903481,2.366462,2.089218,7.905844,2.367012,2.086162,7.752439,2.293135,1.96,
            7.754342,2.29464,1.956944,7.755433,2.297351,1.954353,7.755546,2.300856,1.952621,
            7.754663,2.30462,1.952013,7.75292,2.308071,1.952621,7.750581,2.310683,1.954353,
            7.748002,2.312059,1.956944,7.745577,2.311989,1.96,7.743674,2.310483,1.963056,
            7.742583,2.307772,1.965647,7.742471,2.304268,1.967379,7.743353,2.300504,1.967987,
            7.745097,2.297053,1.967379,7.747436,2.294441,1.965647,7.750014,2.293065,1.963056,
            7.585045,2.251533,1.836894,7.587436,2.251121,1.833838,7.589599,2.252219,1.830782,
            7.591206,2.254661,1.828191,7.592011,2.258073,1.826459,7.591892,2.261938,1.825851,
            7.590866,2.265665,1.826459,7.589091,2.268689,1.828191,7.586837,2.270549,1.830782,
            7.584446,2.270961,1.833838,7.582282,2.269862,1.836894,7.580676,2.267421,1.839485,
            7.579871,2.264008,1.841217,7.57999,2.260144,1.841825,7.581015,2.256416,1.841217,
            7.58279,2.253392,1.839485,7.514778,2.250409,1.78899,7.51683,2.248341,1.786394,
            7.519162,2.247696,1.783333,7.521417,2.24857,1.780272,7.523253,2.250832,1.777676,
            7.524391,2.254137,1.775942,7.524656,2.257982,1.775333,7.524009,2.261782,1.775942,
            7.522548,2.264957,1.777676,7.520496,2.267025,1.780272,7.518165,2.267671,1.783333,